<?xml version="1.0" encoding="UTF-8"?>
<routes>

    <vType vClass="car" 	accel="1.0"  decel="5.0"  id="Car"  length="3.0" maxSpeed="100.0" sigma="0.0" />
	<vType vClass="bicycle" accel="0.1"  decel="2.0"  id="Bike" length="1.0" maxSpeed="5.0" 	sigma="0.0" />


<!--
	<flows>
		<flow id="flow0" type="Car"  from="gneE41" to="186624433" begin="0.00" period="5" number="400" color="1,0,0"/>
	</flows>
-->


</routes>
