<?xml version="1.0" encoding="UTF-8"?>
<routes>

    <vType vClass="car" 	  accel="2.5"  decel="7.5"  id="Car"  length="4.3" maxSpeed="50.0"  sigma="0.6" />
    <vType vClass="bicycle" accel="1.2"  decel="3.0"  id="Bike" length="1.6" maxSpeed="20.0" 	sigma="1.0" />

	<flows>
  <!--
		<flow id="flow0" type="Car"  from="142770547" to="340675956" begin="0.00" vehsPerHour="100" color="1,0,0"/>
  -->
    <flow id="AB" type="Car"  from="-gneE43"  to="gneE24.0"     begin="0.00" vehsPerHour="187" color="1,1,0"/>
    <flow id="AC" type="Car"  from="-gneE43"  to="340675956"    begin="0.00" vehsPerHour="1168" color="1,0,0" departLane="free"/>

    <flow id="BA" type="Car"  from="gneE23.25"  to="-142770547" begin="0.00" vehsPerHour="141" color="0,0,1"/>
    <flow id="BC" type="Car"  from="gneE23.25"  to="340675956"  begin="0.00" vehsPerHour="15" color="0,0,1"/>

    <flow id="CA" type="Car"  from="-340675955" to="-142692918" begin="0.00" vehsPerHour="1331" color="0,1,0"/>
    <flow id="CB" type="Car"  from="-340675955" to="gneE24.0"   begin="0.00" vehsPerHour="1685" color="0,1,0"/>


<flow id="B-AB"  type="Bike" from="gneE66.22"  to="gneE54.12" begin="0.00"  vehsPerHour="160" color="1,1,0"/>
<flow id="B-AC"  type="Bike" from="gneE66.22"  to="gneE72"    begin="0.00"  vehsPerHour="137" color="1,0,0"/>

<flow id="B-BA"  type="Bike" from="gneE70.0"  to="gneE61"     begin="0.00"  vehsPerHour="17" color="0,0,1"/>
<flow id="B-BC"  type="Bike" from="gneE70.0"  to="gneE72"     begin="0.00"  vehsPerHour="95" color="1,1,1"/>

<flow id="B-CA"  type="Bike" from="gneE50"  to="gneE61"       begin="0.00"  vehsPerHour="472" color="0,1,0"/>
<flow id="B-CB"  type="Bike" from="gneE50"  to="gneE54.12"    begin="0.00"  vehsPerHour="160" color="0,1,0"/>


	</flows>

</routes>
