<?xml version="1.0" encoding="UTF-8"?>
<routes>

    <vType vClass="car" 	  accel="2.5"  decel="7.5"  id="Car"  length="4.3" maxSpeed="50.0"  sigma="0.6" />
    <vType vClass="bicycle" accel="1.2"  decel="3.0"  id="Bike" length="1.6" maxSpeed="20.0" 	sigma="1.0" />
    <vType vClass="bicycle" accel="0.7"  decel="3.0"  id="Bike_slow" length="1.6" maxSpeed="10.0" 	sigma="1.0" />

<flows>

  <!--
  FLOW Beispiel
		<flow id="flow0" type="Car"  from="142770547" to="340675956" begin="0.00" vehsPerHour="100" color="1,0,0"/>
  -->

  <!-- CAR -->
    <flow id="AB" type="Car"  from="-gneE43"  to="gneE24.0"     begin="0.00" vehsPerHour="187" color="1,1,0"/>
    <flow id="AC" type="Car"  from="-gneE43"  to="340675956"    begin="0.00" vehsPerHour="1168" color="1,0,0" departLane="free"/>

    <flow id="BA" type="Car"  from="gneE23.25"  to="-142770547" begin="0.00" vehsPerHour="141" color="0,0,1"/>
    <flow id="BC" type="Car"  from="gneE23.25"  to="340675956"  begin="0.00" vehsPerHour="15" color="0,0,1"/>

    <flow id="CA" type="Car"  from="-340675955" to="-142692918" begin="0.00" vehsPerHour="1331" color="0,1,0"/>
    <flow id="CB" type="Car"  from="-340675955" to="gneE24.0"   begin="0.00" vehsPerHour="1685" color="0,1,0"/>

  <!-- BIKE -->
    <flow id="B-AB"  type="Bike" from="gneE66.22"  to="gneE54.12" begin="0.00"  vehsPerHour="112" color="1,1,0"/>
    <flow id="B-AC"  type="Bike" from="gneE66.22"  to="gneE72"    begin="0.00"  vehsPerHour="95" color="1,0,0"/>

    <flow id="B-BA"  type="Bike" from="gneE70.0"  to="gneE61"     begin="0.00"  vehsPerHour="11" color="0,0,1"/>
    <flow id="B-BC"  type="Bike" from="gneE70.0"  to="gneE72"     begin="0.00"  vehsPerHour="66" color="1,1,1"/>

    <flow id="B-CA"  type="Bike" from="gneE50"  to="gneE61"       begin="0.00"  vehsPerHour="330" color="0,1,0"/>
    <flow id="B-CB"  type="Bike" from="gneE50"  to="gneE54.12"    begin="0.00"  vehsPerHour="112" color="0,1,0"/>

  <!-- Slow BIKE -->
    <flow id="B-AB-S"  type="Bike_slow" from="gneE66.22" to="gneE54.12"  begin="0.00"  vehsPerHour="48" color="1,1,0"/>
    <flow id="B-AC-S"  type="Bike_slow" from="gneE66.22" to="gneE72"     begin="0.00"  vehsPerHour="42" color="1,0,0"/>

    <flow id="B-BA-S"  type="Bike_slow" from="gneE70.0"  to="gneE61"     begin="0.00"  vehsPerHour="6" color="0,0,1"/>
    <flow id="B-BC-S"  type="Bike_slow" from="gneE70.0"  to="gneE72"     begin="0.00"  vehsPerHour="29" color="1,1,1"/>

    <flow id="B-CA-S"  type="Bike_slow" from="gneE50"    to="gneE61"     begin="0.00"  vehsPerHour="142" color="0,1,0"/>
    <flow id="B-CB-S"  type="Bike_slow" from="gneE50"    to="gneE54.12"  begin="0.00"  vehsPerHour="48" color="0,1,0"/>

	</flows>
</routes>
