<?xml version="1.0" encoding="UTF-8"?>
<routes>

    <vType vClass="car" 	accel="1.0"  decel="5.0"  id="Car"  length="3.0" maxSpeed="100.0" sigma="0.0" />
    <vType vClass="bicycle" accel="0.1"  decel="2.0"  id="Bike" length="1.0" maxSpeed="5.0" 	sigma="0.0" />

	<flows>
  <!--
		<flow id="flow0" type="Car"  from="142770547" to="340675956" begin="0.00" vehsPerHour="100" color="1,0,0"/>
  -->
    <flow id="AB" type="Car"  from="142770547" to="gneE24.0" begin="0.00" period="5" color="1,0,0"/>
    <flow id="AC" type="Car"  from="142770547" to="340675956" begin="0.00" period="5" color="1,0,0"/>

    <flow id="BA" type="Car"  from="gneE23.25" to="-142770547" begin="0.00" period="5" color="0,0,1"/>
    <flow id="BC" type="Car"  from="gneE23.25" to="340675956" begin="0.00" period="5" color="0,0,1"/>

    <flow id="CA" type="Car"  from="-340675955" to="-142692918" begin="0.00" period="5" color="0,1,0"/>
    <flow id="CB" type="Car"  from="-340675955" to="gneE24.0" begin="0.00" period="5" color="0,1,0"/>
	</flows>

</routes>
